*HEADING
NACE blade
*include, input=./blade.msh
***********************************************************************
** BC
***********************************************************************
*BOUNDARY
1, 1, , 
2, 1, , 
5, 1, , 
7, 1, , 
9, 1, , 
10, 1, , 
11, 1, , 
12, 1, , 
13, 1, , 
14, 1, , 
15, 1, , 
16, 1, , 
17, 1, , 
18, 1, , 
19, 1, , 
20, 1, , 
21, 1, , 
22, 1, , 
23, 1, , 
24, 1, , 
** ... 1375 like lines cut
**************************************************
**               MATERIALDATA
**   (K N,MM,S-SYSTEM:
**    E-MODUL IN N/MM**2, ALPHA IN 1/K, RHO IN
**    10**3*KG/MM**3, TIME IN S, DISP. IN
**    MM, STRESS. IN MPA)
*************************************************
*MATERIAL,NAME=MAT
*ELASTIC,TYPE=ISO
210000.,0.3,293.15
*DENSITY
9.e-09
*SOLID SECTION,ELSET=Eall,MATERIAL=MAT
**************************************************************
*STEP, PERTURBATION
*FREQUENCY,EIGENSOLVER=LANCZOS, NORMALIZATION=MASS
20
***SELECT CYCLIC SYMMETRY MODES, NMIN=2, NMAX=4

*********** output
*NODE PRINT,GLOBAL=YES, FREQUENCY=0
U
*EL PRINT,FREQUENCY=0
*NODE FILE,FREQUENCY=1
U
*EL FILE, FREQUENCY=0, POSITION=AVERAGED AT NODES
*END STEP
**************************************************************
*STEP, PERTURBATION
**BOUNDARY, OP=NEW
**EQUATION, REMOVE ALL
*FREQUENCY, SOLVER=MATRIXSTORAGE, GLOBAL=YES,
1
*END STEP
